RESULTADO_ZIP_110.TXT
CEPEL - CENTRO DE PESQUISAS DE ENERGIA ELETRICA - PROGRAMA DE ANALISE DE REDES - V13.00.00                                 PAG.   4

 IEEE 39 BUS SYSTEM - ZIP LOAD MODEL (40Z, 40I, 20P) - CARGA 110%                
 RELATORIO DE CONVERGENCIA

 OPCOES ATIVADAS: QLIM CREM CTAP STEP NEWT MOCT MOCG MOCF RCVG RMON FILE INMN UNPG

 X-----------X------X------X---------------X---------------X---------------X--X-----------------------------------------------------------X
    ITERACAO          FREQ.  ERRO MAX BARRA  ERRO MAX BARRA  ERRO MAX  CONV                                                                
  FC  P  Q  V  M.O.   (Hz)       MW    NUM.     Mvar   NUM.  TENSAO %  NUM. FM  BARRA(B), CIRCUITO(C) E CONVERSOR COM LIMITE VIOLADO       
 X--X--X--X--X------X------X---------X-----X---------X-----X---------X-----X--X-----------------------------------------------------------X

      1  1    0.1900 60.000    812.70    38    810.99    19
      2  2    0.2846 60.000    829.12    38    155.55    22
      3  3    0.3488 60.000    807.43    39     34.63    19
      4  4    0.5280 60.000    664.92    39     15.07    29
      5  5    1.0000 60.000    337.28    39      8.59     9
      6  6    1.0000 60.000      2.20    39      3.83     1
      7  7    1.0000 60.000      0.95    39      0.00     6
 ................................................................




 CONVERGENCIA FINAL

 X-----------X------X------X---------------X---------------X---------------X
    ITERACAO          FREQ. ERRO MAX BARRA  ERRO MAX BARRA  ERRO MAX  CONV  
  FC  P  Q  V  M.O.   (Hz)      MW    NUM.     Mvar   NUM.  TENSAO %  NUM.  
 X--X--X--X--X------X------X---------X-----X---------X-----X---------X-----X

   0                             0.00     0      0.00     0
      7  7  0 1.0000 60.000      0.02    39      0.00     6     0.000     0


 MONITORACAO DE TENSAO

Não foram encontradas violações de tensao entre as barras monitoradas.


 MONITORACAO DE GERACAO REATIVA

Não foram encontradas violações de geracao entre as barras monitoradas.


 MONITORACAO DE FLUXOS CORRIGIDOS PELA TENSAO - MFCT

 Não foram encontradas violações de fluxo entre os circuitos monitorados
CEPEL - CENTRO DE PESQUISAS DE ENERGIA ELETRICA - PROGRAMA DE ANALISE DE REDES - V13.00.00                                 PAG.   5

 IEEE 39 BUS SYSTEM - ZIP LOAD MODEL (40Z, 40I, 20P) - CARGA 110%                
 RELATORIO DE BARRAS CA DO SISTEMA * AREA   1 *                                     

 X---------------------X-----------X---------------X---------------X---------------X---------------X---------------X---------------X---X
          BARRA            TENSAO        GERACAO     INJECAO EQUIV        CARGA          ELO CC          SHUNT           MOTOR
  NUM.      NOME     TP  MOD   ANG      MW    Mvar\     MW    Mvar      MW    Mvar      MW    Mvar    Mvar   EQUIV      MW    Mvar
                                            CE Mvar                                                 SHUNT L                         EST
 X-----X------------X--X-----X-----X-------X-------X-------X-------X-------X-------X-------X-------X-------X-------X-------X-------X---X

      1 BUS 01        0 1.000   9.2     0.0     0.0     0.0     0.0     0.0     0.0     0.0     0.0     0.0     0.0     0.0     0.0 LIG
      2 BUS 02        0 1.037   1.8     0.0     0.0     0.0     0.0     0.0     0.0     0.0     0.0     0.0     0.0     0.0     0.0 LIG
      3 BUS 03        0 1.016  -3.2     0.0     0.0     0.0     0.0   360.9     2.6     0.0     0.0     0.0     0.0     0.0     0.0 LIG
      4 BUS 04        0 0.987  -4.9     0.0     0.0     0.0     0.0   541.5   198.9     0.0     0.0     3.9     0.0     0.0     0.0 LIG
      5 BUS 05        0 0.986  -3.5     0.0     0.0     0.0     0.0     0.0     0.0     0.0     0.0     0.0     0.0     0.0     0.0 LIG
      6 BUS 06        0 0.990  -3.0     0.0     0.0     0.0     0.0     0.0     0.0     0.0     0.0     0.0     0.0     0.0     0.0 LIG
      7 BUS 07        0 0.973  -4.2     0.0     0.0     0.0     0.0   248.9    89.0     0.0     0.0     3.8     0.0     0.0     0.0 LIG
      8 BUS 08        0 0.969  -4.1     0.0     0.0     0.0     0.0   553.0   185.9     0.0     0.0     5.6     0.0     0.0     0.0 LIG
      9 BUS 09        0 0.968   6.5     0.0     0.0     0.0     0.0     0.0     0.0     0.0     0.0     0.0     0.0     0.0     0.0 LIG
     10 BUS 10        0 1.005  -0.7     0.0     0.0     0.0     0.0     0.0     0.0     0.0     0.0     0.0     0.0     0.0     0.0 LIG
     11 BUS 11        0 0.999  -1.5     0.0     0.0     0.0     0.0     0.0     0.0     0.0     0.0     0.0     0.0     0.0     0.0 LIG
     12 BUS 12        0 0.987  -1.6     0.0     0.0     0.0     0.0     8.2    94.5     0.0     0.0     7.8     0.0     0.0     0.0 LIG
     13 BUS 13        0 1.001  -1.5     0.0     0.0     0.0     0.0     0.0     0.0     0.0     0.0     0.0     0.0     0.0     0.0 LIG
     14 BUS 14        0 0.998  -3.3     0.0     0.0     0.0     0.0     0.0     0.0     0.0     0.0     0.0     0.0     0.0     0.0 LIG
     15 BUS 15        0 1.005  -4.6     0.0     0.0     0.0     0.0   354.0   168.9     0.0     0.0     3.0     0.0     0.0     0.0 LIG
     16 BUS 16        0 1.024  -3.4     0.0     0.0     0.0     0.0   372.4    36.0     0.0     0.0     5.2     0.0     0.0     0.0 LIG
     17 BUS 17        0 1.023  -3.8     0.0     0.0     0.0     0.0     0.0     0.0     0.0     0.0     0.0     0.0     0.0     0.0 LIG
     18 BUS 18        0 1.019  -4.1     0.0     0.0     0.0     0.0   177.7    33.7     0.0     0.0     0.0     0.0     0.0     0.0 LIG
     19 BUS 19        0 1.047   1.2     0.0     0.0     0.0     0.0     0.0     0.0     0.0     0.0     0.0     0.0     0.0     0.0 LIG
     20 BUS 20        0 0.988  -0.2     0.0     0.0     0.0     0.0   681.3   111.4     0.0     0.0     2.9     0.0     0.0     0.0 LIG
     21 BUS 21        0 1.025  -1.4     0.0     0.0     0.0     0.0   310.6   129.9     0.0     0.0     5.3     0.0     0.0     0.0 LIG
     22 BUS 22        0 1.046   3.0     0.0     0.0     0.0     0.0     0.0     0.0     0.0     0.0     0.0     0.0     0.0     0.0 LIG
     23 BUS 23        0 1.041   2.7     0.0     0.0     0.0     0.0   285.8    97.6     0.0     0.0     1.1     0.0     0.0     0.0 LIG
     24 BUS 24        0 1.031  -3.5     0.0     0.0     0.0     0.0   352.2  -104.8     0.0     0.0     2.1     0.0     0.0     0.0 LIG
     25 BUS 25        0 1.042   2.1     0.0     0.0     0.0     0.0   259.0    53.6     0.0     0.0     9.8     0.0     0.0     0.0 LIG
     26 BUS 26        0 1.041  -1.6     0.0     0.0     0.0     0.0   160.6    18.9     0.0     0.0     7.6     0.0     0.0     0.0 LIG
     27 BUS 27        0 1.026  -3.9     0.0     0.0     0.0     0.0   318.8    85.6     0.0     0.0     1.1     0.0     0.0     0.0 LIG
     28 BUS 28        0 1.045   0.9     0.0     0.0     0.0     0.0   239.1    31.7     0.0     0.0     4.4     0.0     0.0     0.0 LIG
     29 BUS 29        0 1.047   3.6     0.0     0.0     0.0     0.0   329.7    30.7     0.0     0.0     6.6     0.0     0.0     0.0 LIG
     30 BUS 30        1 1.048   4.3   250.0   214.0     0.0     0.0     0.0     0.0     0.0     0.0     0.0     0.0     0.0     0.0 LIG
     31 BUS 31        2 0.982  -0.0   202.0   232.7     0.0     0.0     9.9     5.0     0.0     0.0     0.0     0.0     0.0     0.0 LIG
     32 BUS 32        1 0.983   7.4   650.0   261.9     0.0     0.0     0.0     0.0     0.0     0.0     0.0     0.0     0.0     0.0 LIG
     33 BUS 33        1 0.997   6.5   632.0   130.1     0.0     0.0     0.0     0.0     0.0     0.0     0.0     0.0     0.0     0.0 LIG
     34 BUS 34        1 1.012   5.0   508.0   179.0     0.0     0.0     0.0     0.0     0.0     0.0     0.0     0.0     0.0     0.0 LIG
     35 BUS 35        1 1.049   8.0   650.0   236.4     0.0     0.0     0.0     0.0     0.0     0.0     0.0     0.0     0.0     0.0 LIG
     36 BUS 36        1 1.064  10.6   560.0   118.8     0.0     0.0     0.0     0.0     0.0     0.0     0.0     0.0     0.0     0.0 LIG
     37 BUS 37        1 1.028   9.0   540.0    68.2     0.0     0.0     0.0     0.0     0.0     0.0     0.0     0.0     0.0     0.0 LIG
     38 BUS 38        1 1.027  10.6   830.0    46.1     0.0     0.0     0.0     0.0     0.0     0.0     0.0     0.0     0.0     0.0 LIG
     39 BUS 39        1 0.964  13.9  1000.0    33.7     0.0     0.0   205.3   263.3     0.0     0.0     0.0     0.0     0.0     0.0 LIG
CEPEL - CENTRO DE PESQUISAS DE ENERGIA ELETRICA - PROGRAMA DE ANALISE DE REDES - V13.00.00                                 PAG.   6

 IEEE 39 BUS SYSTEM - ZIP LOAD MODEL (40Z, 40I, 20P) - CARGA 110%                
 RELATORIO COMPLETO DO SISTEMA * AREA   1 *                                     

 X--------------------- D A D O S  -  B A R R A ---------------------------X------------- F L U X O S  -  C I R C U I T O S --------------X-----------------X-----------X-------X
  DA BARRA       TENSAO GERACAO INJ EQV  CARGA    ELO CC     SHUNT   MOTOR                                                                                                       
  NUM.  KV TIPO   MOD/     MW/     MW/     MW/      MW/      Mvar/     MW/                                                                    P E R D A S    T E N S A O         
       NOME       ANG     Mvar    Mvar    Mvar     Mvar      EQUIV    Mvar  PARA BARRA             F   L   U   X   O   S                    ATIVA   REATIVA  CIR. ABERTO  TRAFO  
                        MVA_NOM MVA_EMR MVA_EQP   FLUXO %   SHUNT L         NUM.      NOME     NC    MW     Mvar  MVA/V_d   TAP  DEFAS TIE    MW      Mvar    MOD   ANG  UOp UMx 
 X-------------X-------X-------X-------X-------X-----------X-------X-------X-----X------------X--X-------X-------X-------X------X-----X---X--------X--------X-----X-----X---X---X

      1    1  0   1.000     0.0     0.0     0.0         0.0     0.0     0.0
  BUS 01            9.2     0.0     0.0     0.0         0.0     0.0     0.0                                          
                         9999.0  9999.0  9999.0        0.0%                     2 BUS 02        1   313.4  -131.7   340.0                      3.77   -28.30                    
                         9999.0  9999.0  9999.0        0.0%                    39 BUS 39        1  -313.4   131.7   340.0                      1.27   -40.64                    
  ...............................................................................................................................................................................
      2    1  0   1.037     0.0     0.0     0.0         0.0     0.0     0.0
  BUS 02            1.8     0.0     0.0     0.0         0.0     0.0     0.0                                          
                         9999.0  9999.0  9999.0        0.0%                     1 BUS 01        1  -309.7   103.4   314.7                      3.77   -28.30                    
                         9999.0  9999.0  9999.0        0.0%                     3 BUS 03        1   623.7   107.6   610.2                      4.88    29.56                    
                         9999.0  9999.0  9999.0        0.0%                    25 BUS 25        1   -64.0   -14.8    63.4                      0.27   -15.45                    
                         9999.0  9999.0  9999.0        0.0%                    30 BUS 30        1  -250.0  -196.2   306.4 1.025F               0.00    17.85             001 001
  ...............................................................................................................................................................................
      3    1  0   1.016     0.0     0.0   360.9         0.0     0.0     0.0
  BUS 03           -3.2     0.0     0.0     2.6         0.0     0.0     0.0                                          
                         9999.0  9999.0  9999.0        0.0%                     2 BUS 02        1  -618.8   -78.1   614.1                      4.88    29.56                    
                         9999.0  9999.0  9999.0        0.0%                     4 BUS 04        1   144.8   118.5   184.2                      0.48   -14.39                    
                         9999.0  9999.0  9999.0        0.0%                    18 BUS 18        1   113.1   -43.1   119.2                      0.15   -20.34                    
  ...............................................................................................................................................................................
      4    1  0   0.987     0.0     0.0   541.5         0.0     3.9     0.0
  BUS 04           -4.9     0.0     0.0   198.9         0.0     0.0     0.0                                          
                         9999.0  9999.0  9999.0        0.0%                     3 BUS 03        1  -144.4  -132.9   198.8                      0.48   -14.39                    
                         9999.0  9999.0  9999.0        0.0%                     5 BUS 05        1  -185.9    12.1   188.8                      0.29    -8.48                    
                         9999.0  9999.0  9999.0        0.0%                    14 BUS 14        1  -211.2   -74.2   226.8                      0.40    -7.10                    
  ...............................................................................................................................................................................
      5    1  0   0.986     0.0     0.0     0.0         0.0     0.0     0.0
  BUS 05           -3.5     0.0     0.0     0.0         0.0     0.0     0.0                                          
                         9999.0  9999.0  9999.0        0.0%                     4 BUS 04        1   186.2   -20.6   189.9                      0.29    -8.48                    
                         9999.0  9999.0  9999.0        0.0%                     6 BUS 06        1  -292.6  -118.6   320.0                      0.20    -1.59                    
                         9999.0  9999.0  9999.0        0.0%                     8 BUS 08        1   106.4   139.2   177.6                      0.27   -10.34                    
  ...............................................................................................................................................................................
      6    1  0   0.990     0.0     0.0     0.0         0.0     0.0     0.0
  BUS 06           -3.0     0.0     0.0     0.0         0.0     0.0     0.0                                          
                         9999.0  9999.0  9999.0        0.0%                     5 BUS 05        1   292.8   117.0   318.4                      0.20    -1.59                    
                         9999.0  9999.0  9999.0        0.0%                     7 BUS 07        1   224.5   165.7   281.9                      0.49    -3.40                    
                         9999.0  9999.0  9999.0        0.0%                    11 BUS 11        1  -325.2   -78.0   337.7                      0.79    -4.47                    
                         9999.0  9999.0  9999.0        0.0%                    31 BUS 31        1  -192.1  -204.7   283.6 1.070F               0.00    23.02             001 001
  ...............................................................................................................................................................................
      7    1  0   0.973     0.0     0.0   248.9         0.0     3.8     0.0
  BUS 07           -4.2     0.0     0.0    89.0         0.0     0.0     0.0                                          
                         9999.0  9999.0  9999.0        0.0%                     6 BUS 06        1  -224.0  -169.1   288.5                      0.49    -3.40                    
                         9999.0  9999.0  9999.0        0.0%                     8 BUS 08        1   -24.9    83.9    89.9                      0.04    -6.95                    
  ...............................................................................................................................................................................
CEPEL - CENTRO DE PESQUISAS DE ENERGIA ELETRICA - PROGRAMA DE ANALISE DE REDES - V13.00.00                                 PAG.   7

 IEEE 39 BUS SYSTEM - ZIP LOAD MODEL (40Z, 40I, 20P) - CARGA 110%                
 RELATORIO COMPLETO DO SISTEMA * AREA   1 *                                     

 X--------------------- D A D O S  -  B A R R A ---------------------------X------------- F L U X O S  -  C I R C U I T O S --------------X-----------------X-----------X-------X
  DA BARRA       TENSAO GERACAO INJ EQV  CARGA    ELO CC     SHUNT   MOTOR                                                                                                       
  NUM.  KV TIPO   MOD/     MW/     MW/     MW/      MW/      Mvar/     MW/                                                                    P E R D A S    T E N S A O         
       NOME       ANG     Mvar    Mvar    Mvar     Mvar      EQUIV    Mvar  PARA BARRA             F   L   U   X   O   S                    ATIVA   REATIVA  CIR. ABERTO  TRAFO  
                        MVA_NOM MVA_EMR MVA_EQP   FLUXO %   SHUNT L         NUM.      NOME     NC    MW     Mvar  MVA/V_d   TAP  DEFAS TIE    MW      Mvar    MOD   ANG  UOp UMx 
 X-------------X-------X-------X-------X-------X-----------X-------X-------X-----X------------X--X-------X-------X-------X------X-----X---X--------X--------X-----X-----X---X---X

      8    1  0   0.969     0.0     0.0   553.0         0.0     5.6     0.0
  BUS 08           -4.1     0.0     0.0   185.9         0.0     0.0     0.0                                          
                         9999.0  9999.0  9999.0        0.0%                     5 BUS 05        1  -106.1  -149.5   189.2                      0.27   -10.34                    
                         9999.0  9999.0  9999.0        0.0%                     7 BUS 07        1    24.9   -90.8    97.2                      0.04    -6.95                    
                         9999.0  9999.0  9999.0        0.0%                     9 BUS 09        1  -471.9    60.1   490.9                      5.60    52.78                    
  ...............................................................................................................................................................................
      9    1  0   0.968     0.0     0.0     0.0         0.0     0.0     0.0
  BUS 09            6.5     0.0     0.0     0.0         0.0     0.0     0.0                                          
                         9999.0  9999.0  9999.0        0.0%                     8 BUS 08        1   477.5    -7.3   493.5                      5.60    52.78                    
                         9999.0  9999.0  9999.0        0.0%                    39 BUS 39        1  -477.5     7.3   493.5                      2.48   -50.00                    
  ...............................................................................................................................................................................
     10    1  0   1.005     0.0     0.0     0.0         0.0     0.0     0.0
  BUS 10           -0.7     0.0     0.0     0.0         0.0     0.0     0.0                                          
                         9999.0  9999.0  9999.0        0.0%                    11 BUS 11        1   330.2   112.4   347.1                      0.49    -2.10                    
                         9999.0  9999.0  9999.0        0.0%                    13 BUS 13        1   319.8    47.9   321.8                      0.42    -2.87                    
                         9999.0  9999.0  9999.0        0.0%                    32 BUS 32        1  -650.0  -160.2   666.3 1.070F               0.00   101.64             001 001
  ...............................................................................................................................................................................
     11    1  0   0.999     0.0     0.0     0.0         0.0     0.0     0.0
  BUS 11           -1.5     0.0     0.0     0.0         0.0     0.0     0.0                                          
                         9999.0  9999.0  9999.0        0.0%                     6 BUS 06        1   326.0    73.5   334.6                      0.79    -4.47                    
                         9999.0  9999.0  9999.0        0.0%                    10 BUS 10        1  -329.7  -114.4   349.5                      0.49    -2.10                    
                         9999.0  9999.0  9999.0        0.0%                    12 BUS 12        1     3.7    40.9    41.2                      0.03     0.74                    
  ...............................................................................................................................................................................
     12    1  0   0.987     0.0     0.0     8.2         0.0     7.8     0.0
  BUS 12           -1.6     0.0     0.0    94.5         0.0     0.0     0.0                                          
                         9999.0  9999.0  9999.0        0.0%                    11 BUS 11        1    -3.7   -40.2    40.9 1.006F               0.03     0.74             001 001
                         9999.0  9999.0  9999.0        0.0%                    13 BUS 13        1    -4.5   -46.5    47.3 1.006F               0.04     0.99             001 001
  ...............................................................................................................................................................................
     13    1  0   1.001     0.0     0.0     0.0         0.0     0.0     0.0
  BUS 13           -1.5     0.0     0.0     0.0         0.0     0.0     0.0                                          
                         9999.0  9999.0  9999.0        0.0%                    10 BUS 10        1  -319.4   -50.8   323.0                      0.42    -2.87                    
                         9999.0  9999.0  9999.0        0.0%                    12 BUS 12        1     4.5    47.5    47.6                      0.04     0.99                    
                         9999.0  9999.0  9999.0        0.0%                    14 BUS 14        1   314.9     3.3   314.5                      0.89    -7.22                    
  ...............................................................................................................................................................................
     14    1  0   0.998     0.0     0.0     0.0         0.0     0.0     0.0
  BUS 14           -3.3     0.0     0.0     0.0         0.0     0.0     0.0                                          
                         9999.0  9999.0  9999.0        0.0%                     4 BUS 04        1   211.6    67.0   222.4                      0.40    -7.10                    
                         9999.0  9999.0  9999.0        0.0%                    13 BUS 13        1  -314.0   -10.5   314.9                      0.89    -7.22                    
                         9999.0  9999.0  9999.0        0.0%                    15 BUS 15        1   102.4   -56.5   117.2                      0.22   -34.09                    
  ...............................................................................................................................................................................
CEPEL - CENTRO DE PESQUISAS DE ENERGIA ELETRICA - PROGRAMA DE ANALISE DE REDES - V13.00.00                                 PAG.   8

 IEEE 39 BUS SYSTEM - ZIP LOAD MODEL (40Z, 40I, 20P) - CARGA 110%                
 RELATORIO COMPLETO DO SISTEMA * AREA   1 *                                     

 X--------------------- D A D O S  -  B A R R A ---------------------------X------------- F L U X O S  -  C I R C U I T O S --------------X-----------------X-----------X-------X
  DA BARRA       TENSAO GERACAO INJ EQV  CARGA    ELO CC     SHUNT   MOTOR                                                                                                       
  NUM.  KV TIPO   MOD/     MW/     MW/     MW/      MW/      Mvar/     MW/                                                                    P E R D A S    T E N S A O         
       NOME       ANG     Mvar    Mvar    Mvar     Mvar      EQUIV    Mvar  PARA BARRA             F   L   U   X   O   S                    ATIVA   REATIVA  CIR. ABERTO  TRAFO  
                        MVA_NOM MVA_EMR MVA_EQP   FLUXO %   SHUNT L         NUM.      NOME     NC    MW     Mvar  MVA/V_d   TAP  DEFAS TIE    MW      Mvar    MOD   ANG  UOp UMx 
 X-------------X-------X-------X-------X-------X-----------X-------X-------X-----X------------X--X-------X-------X-------X------X-----X---X--------X--------X-----X-----X---X---X

     15    1  0   1.005     0.0     0.0   354.0         0.0     3.0     0.0
  BUS 15           -4.6     0.0     0.0   168.9         0.0     0.0     0.0                                          
                         9999.0  9999.0  9999.0        0.0%                    14 BUS 14        1  -102.2    22.5   104.2                      0.22   -34.09                    
                         9999.0  9999.0  9999.0        0.0%                    16 BUS 16        1  -251.7  -188.4   313.0                      0.85    -8.68                    
  ...............................................................................................................................................................................
     16    1  0   1.024     0.0     0.0   372.4         0.0     5.2     0.0
  BUS 16           -3.4     0.0     0.0    36.0         0.0     0.0     0.0                                          
                         9999.0  9999.0  9999.0        0.0%                    15 BUS 15        1   252.6   179.7   302.7                      0.85    -8.68                    
                         9999.0  9999.0  9999.0        0.0%                    17 BUS 17        1    79.2    -4.7    77.5                      0.04   -13.53                    
                         9999.0  9999.0  9999.0        0.0%                    19 BUS 19        1  -449.8   -79.8   446.2                      3.15     5.81                    
                         9999.0  9999.0  9999.0        0.0%                    21 BUS 21        1  -276.1    -2.6   269.7                      0.58   -16.92                    
                         9999.0  9999.0  9999.0        0.0%                    24 BUS 24        1    21.8  -123.3   122.3                      0.04    -6.34                    
  ...............................................................................................................................................................................
     17    1  0   1.023     0.0     0.0     0.0         0.0     0.0     0.0
  BUS 17           -3.8     0.0     0.0     0.0         0.0     0.0     0.0                                          
                         9999.0  9999.0  9999.0        0.0%                    16 BUS 16        1   -79.1    -8.8    77.8                      0.04   -13.53                    
                         9999.0  9999.0  9999.0        0.0%                    18 BUS 18        1    64.8    43.3    76.2                      0.04   -13.22                    
                         9999.0  9999.0  9999.0        0.0%                    27 BUS 27        1    14.3   -34.5    36.5                      0.01   -33.68                    
  ...............................................................................................................................................................................
     18    1  0   1.019     0.0     0.0   177.7         0.0     0.0     0.0
  BUS 18           -4.1     0.0     0.0    33.7         0.0     0.0     0.0                                          
                         9999.0  9999.0  9999.0        0.0%                     3 BUS 03        1  -112.9    22.8   113.1                      0.15   -20.34                    
                         9999.0  9999.0  9999.0        0.0%                    17 BUS 17        1   -64.8   -56.5    84.4                      0.04   -13.22                    
  ...............................................................................................................................................................................
     19    1  0   1.047     0.0     0.0     0.0         0.0     0.0     0.0
  BUS 19            1.2     0.0     0.0     0.0         0.0     0.0     0.0                                          
                         9999.0  9999.0  9999.0        0.0%                    16 BUS 16        1   453.0    85.6   440.5                      3.15     5.81                    
                         9999.0  9999.0  9999.0        0.0%                    20 BUS 20        1   176.1   -15.0   168.9 1.060F               0.22     4.42             001 001
                         9999.0  9999.0  9999.0        0.0%                    33 BUS 33        1  -629.1   -70.6   604.8 1.070F               2.93    59.48             001 001
  ...............................................................................................................................................................................
     20    1  0   0.988     0.0     0.0   681.3         0.0     2.9     0.0
  BUS 20           -0.2     0.0     0.0   111.4         0.0     0.0     0.0                                          
                         9999.0  9999.0  9999.0        0.0%                    19 BUS 19        1  -175.8    19.5   179.0                      0.22     4.42                    
                         9999.0  9999.0  9999.0        0.0%                    34 BUS 34        1  -505.5  -128.0   527.5 1.009F               2.55    50.99             001 001
  ...............................................................................................................................................................................
     21    1  0   1.025     0.0     0.0   310.6         0.0     5.3     0.0
  BUS 21           -1.4     0.0     0.0   129.9         0.0     0.0     0.0                                          
                         9999.0  9999.0  9999.0        0.0%                    16 BUS 16        1   276.7   -14.4   270.2                      0.58   -16.92                    
                         9999.0  9999.0  9999.0        0.0%                    22 BUS 22        1  -587.3  -110.3   582.8                      2.70    19.67                    
  ...............................................................................................................................................................................
CEPEL - CENTRO DE PESQUISAS DE ENERGIA ELETRICA - PROGRAMA DE ANALISE DE REDES - V13.00.00                                 PAG.   9

 IEEE 39 BUS SYSTEM - ZIP LOAD MODEL (40Z, 40I, 20P) - CARGA 110%                
 RELATORIO COMPLETO DO SISTEMA * AREA   1 *                                     

 X--------------------- D A D O S  -  B A R R A ---------------------------X------------- F L U X O S  -  C I R C U I T O S --------------X-----------------X-----------X-------X
  DA BARRA       TENSAO GERACAO INJ EQV  CARGA    ELO CC     SHUNT   MOTOR                                                                                                       
  NUM.  KV TIPO   MOD/     MW/     MW/     MW/      MW/      Mvar/     MW/                                                                    P E R D A S    T E N S A O         
       NOME       ANG     Mvar    Mvar    Mvar     Mvar      EQUIV    Mvar  PARA BARRA             F   L   U   X   O   S                    ATIVA   REATIVA  CIR. ABERTO  TRAFO  
                        MVA_NOM MVA_EMR MVA_EQP   FLUXO %   SHUNT L         NUM.      NOME     NC    MW     Mvar  MVA/V_d   TAP  DEFAS TIE    MW      Mvar    MOD   ANG  UOp UMx 
 X-------------X-------X-------X-------X-------X-----------X-------X-------X-----X------------X--X-------X-------X-------X------X-----X---X--------X--------X-----X-----X---X---X

     22    1  0   1.046     0.0     0.0     0.0         0.0     0.0     0.0
  BUS 22            3.0     0.0     0.0     0.0         0.0     0.0     0.0                                          
                         9999.0  9999.0  9999.0        0.0%                    21 BUS 21        1   590.0   129.9   577.5                      2.70    19.67                    
                         9999.0  9999.0  9999.0        0.0%                    23 BUS 23        1    60.0    44.3    71.3                      0.04   -19.53                    
                         9999.0  9999.0  9999.0        0.0%                    35 BUS 35        1  -650.0  -174.2   643.3 1.025F               0.00    62.17             001 001
  ...............................................................................................................................................................................
     23    1  0   1.041     0.0     0.0   285.8         0.0     1.1     0.0
  BUS 23            2.7     0.0     0.0    97.6         0.0     0.0     0.0                                          
                         9999.0  9999.0  9999.0        0.0%                    22 BUS 22        1   -59.9   -63.8    84.1                      0.04   -19.53                    
                         9999.0  9999.0  9999.0        0.0%                    24 BUS 24        1   332.7     7.3   319.7                      2.26    -2.75                    
                         9999.0  9999.0  9999.0        0.0%                    36 BUS 36        1  -558.6   -40.0   538.0 1.000F               1.45    78.74             001 001
  ...............................................................................................................................................................................
     24    1  0   1.031     0.0     0.0   352.2         0.0     2.1     0.0
  BUS 24           -3.5     0.0     0.0  -104.8         0.0     0.0     0.0                                          
                         9999.0  9999.0  9999.0        0.0%                    16 BUS 16        1   -21.8   117.0   115.4                      0.04    -6.34                    
                         9999.0  9999.0  9999.0        0.0%                    23 BUS 23        1  -330.4   -10.1   320.7                      2.26    -2.75                    
  ...............................................................................................................................................................................
     25    1  0   1.042     0.0     0.0   259.0         0.0     9.8     0.0
  BUS 25            2.1     0.0     0.0    53.6         0.0     0.0     0.0                                          
                         9999.0  9999.0  9999.0        0.0%                     2 BUS 02        1    64.3    -0.6    61.7                      0.27   -15.45                    
                         9999.0  9999.0  9999.0        0.0%                    26 BUS 26        1   215.0   -40.0   209.8                      1.37   -41.89                    
                         9999.0  9999.0  9999.0        0.0%                    37 BUS 37        1  -538.3    -3.2   516.5 1.025F               1.68    65.04             001 001
  ...............................................................................................................................................................................
     26    1  0   1.041     0.0     0.0   160.6         0.0     7.6     0.0
  BUS 26           -1.6     0.0     0.0    18.9         0.0     0.0     0.0                                          
                         9999.0  9999.0  9999.0        0.0%                    25 BUS 25        1  -213.6    -1.8   205.1                      1.37   -41.89                    
                         9999.0  9999.0  9999.0        0.0%                    27 BUS 27        1   305.9    73.5   302.0                      1.30   -11.91                    
                         9999.0  9999.0  9999.0        0.0%                    28 BUS 28        1   -97.8   -39.4   101.3                      0.38   -80.74                    
                         9999.0  9999.0  9999.0        0.0%                    29 BUS 29        1  -155.1   -43.6   154.6                      1.27   -98.25                    
  ...............................................................................................................................................................................
     27    1  0   1.026     0.0     0.0   318.8         0.0     1.1     0.0
  BUS 27           -3.9     0.0     0.0    85.6         0.0     0.0     0.0                                          
                         9999.0  9999.0  9999.0        0.0%                    17 BUS 17        1   -14.3     0.8    13.9                      0.01   -33.68                    
                         9999.0  9999.0  9999.0        0.0%                    26 BUS 26        1  -304.6   -85.4   308.3                      1.30   -11.91                    
  ...............................................................................................................................................................................
     28    1  0   1.045     0.0     0.0   239.1         0.0     4.4     0.0
  BUS 28            0.9     0.0     0.0    31.7         0.0     0.0     0.0                                          
                         9999.0  9999.0  9999.0        0.0%                    26 BUS 26        1    98.2   -41.3   101.9                      0.38   -80.74                    
                         9999.0  9999.0  9999.0        0.0%                    29 BUS 29        1  -337.3    14.1   323.0                      1.47   -11.41                    
  ...............................................................................................................................................................................
CEPEL - CENTRO DE PESQUISAS DE ENERGIA ELETRICA - PROGRAMA DE ANALISE DE REDES - V13.00.00                                 PAG.  10

 IEEE 39 BUS SYSTEM - ZIP LOAD MODEL (40Z, 40I, 20P) - CARGA 110%                
 RELATORIO COMPLETO DO SISTEMA * AREA   1 *                                     

 X--------------------- D A D O S  -  B A R R A ---------------------------X------------- F L U X O S  -  C I R C U I T O S --------------X-----------------X-----------X-------X
  DA BARRA       TENSAO GERACAO INJ EQV  CARGA    ELO CC     SHUNT   MOTOR                                                                                                       
  NUM.  KV TIPO   MOD/     MW/     MW/     MW/      MW/      Mvar/     MW/                                                                    P E R D A S    T E N S A O         
       NOME       ANG     Mvar    Mvar    Mvar     Mvar      EQUIV    Mvar  PARA BARRA             F   L   U   X   O   S                    ATIVA   REATIVA  CIR. ABERTO  TRAFO  
                        MVA_NOM MVA_EMR MVA_EQP   FLUXO %   SHUNT L         NUM.      NOME     NC    MW     Mvar  MVA/V_d   TAP  DEFAS TIE    MW      Mvar    MOD   ANG  UOp UMx 
 X-------------X-------X-------X-------X-------X-----------X-------X-------X-----X------------X--X-------X-------X-------X------X-----X---X--------X--------X-----X-----X---X---X

     29    1  0   1.047     0.0     0.0   329.7         0.0     6.6     0.0
  BUS 29            3.6     0.0     0.0    30.7         0.0     0.0     0.0                                          
                         9999.0  9999.0  9999.0        0.0%                    26 BUS 26        1   156.3   -54.7   158.2                      1.27   -98.25                    
                         9999.0  9999.0  9999.0        0.0%                    28 BUS 28        1   338.7   -25.5   324.5                      1.47   -11.41                    
                         9999.0  9999.0  9999.0        0.0%                    38 BUS 38        1  -824.8    56.1   789.7 1.025F               5.24   102.21             001 001
  ...............................................................................................................................................................................
     30    1  1   1.048   250.0     0.0     0.0         0.0     0.0     0.0
  BUS 30            4.3   214.0     0.0     0.0         0.0     0.0     0.0                                          
                         9999.0  9999.0  9999.0        0.0%                     2 BUS 02        1   250.0   214.0   314.0                      0.00    17.85                    
  ...............................................................................................................................................................................
     31    1  2   0.982   202.0     0.0     9.9         0.0     0.0     0.0
  BUS 31           -0.0   232.7     0.0     5.0         0.0     0.0     0.0                                          
                         9999.0  9999.0  9999.0        0.0%                     6 BUS 06        1   192.1   227.8   303.4                      0.00    23.02                    
  ...............................................................................................................................................................................
     32    1  1   0.983   650.0     0.0     0.0         0.0     0.0     0.0
  BUS 32            7.4   261.9     0.0     0.0         0.0     0.0     0.0                                          
                         9999.0  9999.0  9999.0        0.0%                    10 BUS 10        1   650.0   261.9   712.9                      0.00   101.64                    
  ...............................................................................................................................................................................
     33    1  1   0.997   632.0     0.0     0.0         0.0     0.0     0.0
  BUS 33            6.5   130.1     0.0     0.0         0.0     0.0     0.0                                          
                         9999.0  9999.0  9999.0        0.0%                    19 BUS 19        1   632.0   130.1   647.2                      2.93    59.48                    
  ...............................................................................................................................................................................
     34    1  1   1.012   508.0     0.0     0.0         0.0     0.0     0.0
  BUS 34            5.0   179.0     0.0     0.0         0.0     0.0     0.0                                          
                         9999.0  9999.0  9999.0        0.0%                    20 BUS 20        1   508.0   179.0   532.2                      2.55    50.99                    
  ...............................................................................................................................................................................
     35    1  1   1.049   650.0     0.0     0.0         0.0     0.0     0.0
  BUS 35            8.0   236.4     0.0     0.0         0.0     0.0     0.0                                          
                         9999.0  9999.0  9999.0        0.0%                    22 BUS 22        1   650.0   236.4   659.3                      0.00    62.17                    
  ...............................................................................................................................................................................
     36    1  1   1.064   560.0     0.0     0.0         0.0     0.0     0.0
  BUS 36           10.6   118.8     0.0     0.0         0.0     0.0     0.0                                          
                         9999.0  9999.0  9999.0        0.0%                    23 BUS 23        1   560.0   118.8   538.0                      1.45    78.74                    
  ...............................................................................................................................................................................
     37    1  1   1.028   540.0     0.0     0.0         0.0     0.0     0.0
  BUS 37            9.0    68.2     0.0     0.0         0.0     0.0     0.0                                          
                         9999.0  9999.0  9999.0        0.0%                    25 BUS 25        1   540.0    68.2   529.5                      1.68    65.04                    
  ...............................................................................................................................................................................
CEPEL - CENTRO DE PESQUISAS DE ENERGIA ELETRICA - PROGRAMA DE ANALISE DE REDES - V13.00.00                                 PAG.  11

 IEEE 39 BUS SYSTEM - ZIP LOAD MODEL (40Z, 40I, 20P) - CARGA 110%                
 RELATORIO COMPLETO DO SISTEMA * AREA   1 *                                     

 X--------------------- D A D O S  -  B A R R A ---------------------------X------------- F L U X O S  -  C I R C U I T O S --------------X-----------------X-----------X-------X
  DA BARRA       TENSAO GERACAO INJ EQV  CARGA    ELO CC     SHUNT   MOTOR                                                                                                       
  NUM.  KV TIPO   MOD/     MW/     MW/     MW/      MW/      Mvar/     MW/                                                                    P E R D A S    T E N S A O         
       NOME       ANG     Mvar    Mvar    Mvar     Mvar      EQUIV    Mvar  PARA BARRA             F   L   U   X   O   S                    ATIVA   REATIVA  CIR. ABERTO  TRAFO  
                        MVA_NOM MVA_EMR MVA_EQP   FLUXO %   SHUNT L         NUM.      NOME     NC    MW     Mvar  MVA/V_d   TAP  DEFAS TIE    MW      Mvar    MOD   ANG  UOp UMx 
 X-------------X-------X-------X-------X-------X-----------X-------X-------X-----X------------X--X-------X-------X-------X------X-----X---X--------X--------X-----X-----X---X---X

     38    1  1   1.027   830.0     0.0     0.0         0.0     0.0     0.0
  BUS 38           10.6    46.1     0.0     0.0         0.0     0.0     0.0                                          
                         9999.0  9999.0  9999.0        0.0%                    29 BUS 29        1   830.0    46.1   809.4                      5.24   102.21                    
  ...............................................................................................................................................................................
     39    1  1   0.964  1000.0     0.0   205.3         0.0     0.0     0.0
  BUS 39           13.9    33.7     0.0   263.3         0.0     0.0     0.0                                          
                         9999.0  9999.0  9999.0        0.0%                     1 BUS 01        1   314.7  -172.3   372.1                      1.27   -40.64                    
                         9999.0  9999.0  9999.0        0.0%                     9 BUS 09        1   480.0   -57.3   501.3                      2.48   -50.00                    



 TOTAIS DA AREA   1


 X--------X--------X--------X--------X--------X--------X--------X--------X
   GERACAO  INJ EQV   CARGA   ELO CC    SHUNT   EXPORT   IMPORT   PERDAS  
     MW/      MW/      MW/      MW/     Mvar/     MW/      MW/      MW/   
    Mvar     Mvar     Mvar     Mvar     EQUIV    Mvar     Mvar     Mvar   
 X--------X--------X--------X--------X--------X--------X--------X--------X

    5822.0      0.0   5769.0      0.0     70.1      0.0      0.0     53.0
    1520.9      0.0   1532.5      0.0      0.0      0.0      0.0     58.5


 MONITORACAO DE TENSAO

Não foram encontradas violações de tensao entre as barras monitoradas.


 MONITORACAO DE GERACAO REATIVA

Não foram encontradas violações de geracao entre as barras monitoradas.


 MONITORACAO DE FLUXOS CORRIGIDOS PELA TENSAO - MFCT

 Não foram encontradas violações de fluxo entre os circuitos monitorados
CEPEL - CENTRO DE PESQUISAS DE ENERGIA ELETRICA - PROGRAMA DE ANALISE DE REDES - V13.00.00                                 PAG.   1

 IEEE 39 BUS SYSTEM - ZIP LOAD MODEL (40Z, 40I, 20P) - CARGA 110%                
 RELATORIO DE CONVERGENCIA

 OPCOES ATIVADAS: QLIM CREM CTAP STEP NEWT MOCT MOCG MOCF RCVG RMON FILE INMN UNPG





 CONVERGENCIA FINAL

 X-----------X------X------X---------------X---------------X---------------X
    ITERACAO          FREQ. ERRO MAX BARRA  ERRO MAX BARRA  ERRO MAX  CONV  
  FC  P  Q  V  M.O.   (Hz)      MW    NUM.     Mvar   NUM.  TENSAO %  NUM.  
 X--X--X--X--X------X------X---------X-----X---------X-----X---------X-----X

   0                             0.00     0      0.00     0
      0  0  0 1.0000 60.000      0.02    39      0.00     6     0.000     0


 MONITORACAO DE TENSAO

Não foram encontradas violações de tensao entre as barras monitoradas.


 MONITORACAO DE GERACAO REATIVA

Não foram encontradas violações de geracao entre as barras monitoradas.


 MONITORACAO DE FLUXOS CORRIGIDOS PELA TENSAO - MFCT

 Não foram encontradas violações de fluxo entre os circuitos monitorados
CEPEL - CENTRO DE PESQUISAS DE ENERGIA ELETRICA - PROGRAMA DE ANALISE DE REDES - V13.00.00                                 PAG.   1

 IEEE 39 BUS SYSTEM - ZIP LOAD MODEL (40Z, 40I, 20P) - CARGA 110%                
 RELATORIO DE CONVERGENCIA

 OPCOES ATIVADAS: QLIM CREM CTAP STEP NEWT MOCT MOCG MOCF RCVG RMON FILE INMN UNPG





 CONVERGENCIA FINAL

 X-----------X------X------X---------------X---------------X---------------X
    ITERACAO          FREQ. ERRO MAX BARRA  ERRO MAX BARRA  ERRO MAX  CONV  
  FC  P  Q  V  M.O.   (Hz)      MW    NUM.     Mvar   NUM.  TENSAO %  NUM.  
 X--X--X--X--X------X------X---------X-----X---------X-----X---------X-----X

   0                             0.00     0      0.00     0
      0  0  0 1.0000 60.000      0.02    39      0.00     6     0.000     0


 MONITORACAO DE TENSAO

Não foram encontradas violações de tensao entre as barras monitoradas.


 MONITORACAO DE GERACAO REATIVA

Não foram encontradas violações de geracao entre as barras monitoradas.


 MONITORACAO DE FLUXOS CORRIGIDOS PELA TENSAO - MFCT

 Não foram encontradas violações de fluxo entre os circuitos monitorados
